Circuit: * C:\Users\serge\OneDrive\Documents\UMSAE Formula Electric\2020\LTspice Simulations\TSAL\Draft1.asc

Direct Newton iteration for .op point succeeded.

Date: Wed Sep 25 13:17:56 2019
Total elapsed time: 0.456 seconds.

tnom = 27
temp = 27
method = modified trap
totiter = 2088
traniter = 2082
tranpoints = 1042
accept = 1042
rejected = 0
matrix size = 16
fillins = 0
solver = Normal
Matrix Compiler1: 770 bytes object code size  0.2/0.1/[0.1]
Matrix Compiler2: 1.20 KB object code size  0.1/0.2/[0.1]

