Circuit: * C:\Users\serge\OneDrive\Documents\UMSAE Formula Electric\2020\LTspice Simulations\TSAL\Timer Duty Cycle.asc

D1: both pins shorted together -- ignoring.
Limiting rise time of source v3 to 0.1
Limiting fall time of source v3 to 0.1
WARNING: Node NC_01 is floating.
WARNING: Node NC_02 is floating.
WARNING: Node NC_04 is floating.
WARNING: Node NC_05 is floating.
WARNING: Node NC_06 is floating.

WARNING: Less than two connections to node DIS.  This node is used by S:U1:1.
WARNING: Less than two connections to node NC_01.  This node is used by C2.
WARNING: Less than two connections to node NC_02.  This node is used by C2.
WARNING: Less than two connections to node NC_03.  This node is used by V3.
WARNING: Less than two connections to node NC_04.  This node is used by V3.
WARNING: Less than two connections to node NC_05.  This node is used by C3.
WARNING: Less than two connections to node NC_06.  This node is used by C3.
Direct Newton iteration for .op point succeeded.
Heightened Def Con from 0.802212 to 0.802212
Heightened Def Con from 3.44498 to 3.44498

Date: Tue Jul 23 15:00:36 2019
Total elapsed time: 0.678 seconds.

tnom = 27
temp = 27
method = modified trap
totiter = 51405
traniter = 51378
tranpoints = 14862
accept = 12725
rejected = 2139
matrix size = 59
fillins = 2
solver = Normal
Matrix Compiler1: 2.60 KB object code size  0.6/0.3/[0.2]
Matrix Compiler2: off  [0.3]/0.5/0.3

