Circuit: * C:\Users\serge\OneDrive\Documents\UMSAE Formula Electric\2020\PCBs\ACU\TSAL\Timer.asc

Limiting rise time of source v3 to 0.1
Limiting fall time of source v3 to 0.1
WARNING: Node NC_02 is floating.

WARNING: Less than two connections to node NC_01.  This node is used by V3.
WARNING: Less than two connections to node NC_02.  This node is used by V3.
V2: Missing value, assumed 0V @ DC
Direct Newton iteration for .op point succeeded.

Date: Thu Jun 27 16:35:54 2019
Total elapsed time: 0.513 seconds.

tnom = 27
temp = 27
method = modified trap
totiter = 29780
traniter = 29771
tranpoints = 9801
accept = 8884
rejected = 917
matrix size = 28
fillins = 0
solver = Normal
Matrix Compiler1: 1.06 KB object code size  0.5/0.3/[0.2]
Matrix Compiler2: 1.82 KB object code size  0.3/0.5/[0.2]

