Circuit: * C:\Users\serge\OneDrive\Documents\UMSAE Formula Electric\2020\PCBs\ACU\TSAL\TSActive.asc

Limiting rise time of source v2 to 0.1
Limiting fall time of source v2 to 0.1
Direct Newton iteration for .op point succeeded.

Date: Fri Jun 14 15:14:00 2019
Total elapsed time: 0.601 seconds.

tnom = 27
temp = 27
method = modified trap
totiter = 12198
traniter = 12192
tranpoints = 6097
accept = 6087
rejected = 10
matrix size = 8
fillins = 0
solver = Normal
Matrix Compiler1: 264 bytes object code size  0.2/0.1/[0.1]
Matrix Compiler2: 560 bytes object code size  0.2/0.2/[0.2]

