Circuit: * C:\Users\serge\OneDrive\Documents\UMSAE Formula Electric\2020\LTspice Simulations\Latching\Latching.asc

Direct Newton iteration for .op point succeeded.

Date: Mon Jul 15 10:30:24 2019
Total elapsed time: 0.457 seconds.

tnom = 27
temp = 27
method = modified trap
totiter = 16208
traniter = 16198
tranpoints = 4847
accept = 3762
rejected = 1085
matrix size = 42
fillins = 12
solver = Normal
Matrix Compiler1: 3.06 KB object code size  0.8/0.5/[0.3]
Matrix Compiler2: 3.64 KB object code size  0.5/0.7/[0.4]

