Circuit: * C:\Users\serge\OneDrive\Documents\UMSAE Formula Electric\2020\LTspice Simulations\Latching\Latching_BSPD_Detection.asc

WARNING: Less than two connections to node BSPD_OKN.  This node is used by A3.
Direct Newton iteration failed to find .op point.  (Use ".option noopiter" to skip.)
Starting Gmin stepping
Gmin = 10
Gmin = 1.07374
Gmin = 0.115292
Gmin = 0.0123794
Gmin = 0.00132923
Gmin = 0.000142725
Gmin = 1.5325e-005
Gmin = 1.6455e-006
Gmin = 1.76685e-007
Gmin = 1.89714e-008
Gmin = 2.03704e-009
Gmin = 2.18725e-010
Gmin = 2.34854e-011
Gmin = 2.52173e-012
Gmin = 2.70769e-013
Gmin = 0
Gmin stepping succeeded in finding the operating point.


Date: Fri Jul 19 18:02:35 2019
Total elapsed time: 0.459 seconds.

tnom = 27
temp = 27
method = modified trap
totiter = 2642
traniter = 2096
tranpoints = 1049
accept = 1049
rejected = 0
matrix size = 53
fillins = 12
solver = Normal
Thread vector: 27.7/13.4[5] 9.8/4.6[5] 4.8/2.6[5] 0.2/1.4[1]  2592/500
Matrix Compiler1: 3.33 KB object code size  1.8/0.6/[0.3]
Matrix Compiler2: 4.69 KB object code size  1.6/1.5/[0.3]

